Modified 4 Bus/6 Node with PV/4busDYBal_VLL_Node.Txt

LINE-LINE VOLTAGES BY BUS & NODE

Bus       Node    VLN (kV)   Angle      pu     Base kV 

SOURCEBUS 1-2      12.47 /_   30.0   0.99997    12.470
   -      2-3      12.47 /_  -90.0   0.99997    12.470
   -      3-1      12.47 /_  150.0   0.99997    12.470
N2 ...... 1-2     12.331 /_   29.7   0.98886    12.470
   -      2-3     12.339 /_  -90.4   0.98953    12.470
   -      3-1     12.305 /_  149.6   0.98681    12.470
N3 ...... 1-2      3.878 /_   -3.6   0.93221     4.160
   -      2-3     3.9016 /_ -123.8   0.93788     4.160
   -      3-1     3.8826 /_  116.0   0.93332     4.160
N4 ...... 1-2     3.3703 /_   -7.9   0.81017     4.160
   -      2-3     3.4691 /_ -129.9   0.83391     4.160
   -      3-1     3.3173 /_  109.6   0.79742     4.160
N5 ...... 1-2     3.3592 /_   -8.0   0.80749     4.160
   -      2-3     3.4598 /_ -130.0   0.83169     4.160
   -      3-1     3.3048 /_  109.5   0.79442     4.160
N6 ...... 1-2     3.3381 /_   -8.2   0.80242     4.160
   -      2-3     3.4425 /_ -130.3   0.82752     4.160
   -      3-1     3.2819 /_  109.1   0.78891     4.160
PVBUS ... 1-2    0.38654 /_  -38.0   0.80529     0.480
   -      2-3    0.40456 /_ -157.7   0.84284     0.480
   -      3-1    0.39816 /_   79.9   0.82949     0.480
